Circuit: * Z:\home\luki\Dokumenty\Semestr2\Elektronika\Tranzystory-chki\schemat1.asc

V1: Missing value, assumed 0V @ DC

Date: Thu Apr 09 15:44:22 2015
Total elapsed time: 0.127 seconds.

tnom = 27
temp = 27
method = trap
totiter = 4008
traniter = 0
tranpoints = 0
accept = 0
rejected = 0
matrix size = 8
fillins = 0
solver = Normal
Matrix Compiler1: 424 bajtów object code size  0.4/0.3/[0.2]
Matrix Compiler2: 588 bajtów object code size  0.2/0.3/[0.2]


