Circuit: * Z:\home\luki\Dokumenty\Semestr2\Elektronika\Tranzystory-chki\schemat3.asc


Date: Thu Apr 09 17:15:38 2015
Total elapsed time: 0.018 seconds.

tnom = 27
temp = 27
method = trap
totiter = 42
traniter = 0
tranpoints = 0
accept = 0
rejected = 0
matrix size = 5
fillins = 0
solver = Normal
Matrix Compiler1: 114 bajtów object code size
Matrix Compiler2: 301 bajtów object code size

