Circuit: * Z:\home\luki\Dokumenty\Semestr2\Elektronika\labEA\Wzmacniacze_lab1.asc

Direct Newton iteration for .op point succeeded.

Date: Sat Mar 28 13:10:51 2015
Total elapsed time: 0.017 seconds.

tnom = 27
temp = 27
method = trap
totiter = 18
traniter = 0
tranpoints = 0
accept = 0
rejected = 0
matrix size = 75
fillins = 102
solver = Normal
Matrix Compiler1:     486 opcodes
Matrix Compiler2: 8,22 KB object code size

